-------------------------------------------------------
          Amber 8  SANDER                 Scripps/UCSF 2004
          -------------------------------------------------------

File Assignments:

 Here is the input file:

NMA 5ps
 &cntrl
   imin =0,irest=0,
   nstlim=5000, dt=0.001,
   ntwx=250,
   nscm=100,tempi=300.0,
   temp0=300.0,
   scee=1.2, ntpr=250,
   ntb=0, cut=999.,
   ntt=0,
 /

--------------------------------------------------------------------------------
   1.  RESOURCE   USE:
--------------------------------------------------------------------------------

 NATOM  =      12 NTYPES =       7 NBONH =       7 MBONA  =       4
 NTHETH =      14 MTHETA =       4 NPHIH =      21 MPHIA  =       3
 NHPARM =       0 NPARM  =       0 NNB   =      46 NRES   =       2
 NBONA  =       4 NTHETA =       4 NPHIA =       3 NUMBND =       7
 NUMANG =      10 NPTRA  =       7 NATYP =       7 NPHB   =       0
 IFBOX  =       0 NMXRS  =       6 IFCAP =       0 NEXTRA =       0
 NCOPY  =       0

--------------------------------------------------------------------------------
   2.  CONTROL  DATA  FOR  THE  RUN
--------------------------------------------------------------------------------

General flags:
     imin    =       0, nmropt  =       0

Nature and format of input:
     ntx     =       1, irest   =       0, ntrx    =       1

Nature and format of output:
     ntxo    =       1, ntpr    =     250, ntrx    =       1, ntwr    =     500
     iwrap   =       0, ntwx    =     250, ntwv    =       0, ntwe    =       0
     ioutfm  =       0, ntwprt  =       0, idecomp =       0, rbornstat=      0

Potential function:
     ntf     =       1, ntb     =       0, igb     =       0, nsnb    =      25
     ipol    =       0, gbsa    =       0, iesp    =       0
     dielc   =   1.00000, cut     = 999.00000, intdiel =   1.00000
     scnb    =   2.00000, scee    =   1.20000

Frozen or restrained atoms:
     ibelly  =       0, ntr     =       0

Molecular dynamics:
     nstlim  =    5000, nscm    =     100, nrespa  =       1
     t       =   0.00000, dt      =   0.00100, vlimit  =  20.00000

--------------------------------------------------------------------------------
   3.  ATOMIC COORDINATES AND VELOCITIES
--------------------------------------------------------------------------------

 begin time read from input coords =     0.000 ps

 Number of triangulated 3-point waters found:        0

     Sum of charges from parm topology file =   0.00000000
     Forcing neutrality...

--------------------------------------------------------------------------------
   4.  RESULTS
 NSTEP =        0   TIME(PS) =       0.000  TEMP(K) =   365.87  PRESS =     0.0
 Etot   =       -16.1613  EKtot   =        10.9057  EPtot      =       -27.0670
 BOND   =         0.0001  ANGLE   =         0.0054  DIHED      =         2.8688
 1-4 NB =         1.3990  1-4 EEL =       -18.6796  VDWAALS    =        -0.0734
 EELEC  =       -12.5874  EHBOND  =         0.0000  RESTRAINT  =         0.0000
 ------------------------------------------------------------------------------

      A V E R A G E S   O V E R    5000 S T E P S

 NSTEP =     5000   TIME(PS) =       5.000  TEMP(K) =   191.64  PRESS =     0.0
 Etot   =       -16.7558  EKtot   =         5.7124  EPtot      =       -22.4682
 BOND   =         2.3487  ANGLE   =         2.7524  DIHED      =         3.1962
 1-4 NB =         1.1524  1-4 EEL =       -19.8234  VDWAALS    =        -0.0579
 EELEC  =       -12.0367  EHBOND  =         0.0000  RESTRAINT  =         0.0000
 ------------------------------------------------------------------------------

      R M S  F L U C T U A T I O N S

 NSTEP =     5000   TIME(PS) =       5.000  TEMP(K) =    36.29  PRESS =     0.0
 Etot   =         0.1106  EKtot   =         1.0818  EPtot      =         1.0998
 BOND   =         0.8316  ANGLE   =         0.9184  DIHED      =         0.3460
 1-4 NB =         0.4256  1-4 EEL =         0.9046  VDWAALS    =         0.2255
 EELEC  =         0.7494  EHBOND  =         0.0000  RESTRAINT  =         0.0000
 ------------------------------------------------------------------------------
